#-----------Setup----------------------
units metal            #Energy = eV , Distance= Angstroms
dimension 3
boundary p p p         #Periodic boundary conditions
atom_style atomic

# Read config files

read_data optimized.data
  orthogonal box = (-0.0248818 -0.0248818 -0.0248818) to (4.02488 4.02488 4.02488)
  reading atoms ...
  4 atoms
  reading velocities ...
  4 velocities
replicate 3 3 3
  orthogonal box = (-0.0248818 -0.0248818 -0.0248818) to (12.1244 12.1244 12.1244)
  108 atoms

pair_style eam/alloy
pair_coeff * *  Al99.eam.alloy Al
neighbor 2.0 bin
neigh_modify delay 10 check yes

#--------- NPT-------
reset_timestep 0
timestep 0.001

thermo 1000
thermo_style custom step pe ke etotal enthalpy temp vol press
velocity all create 300 1518772
fix 1 all npt temp 300 300 0.5 iso 1 1 5
dump 2 all atom 2000 dump.nptoptimized.data
run 60000
  1 neighbor list requests
  update every 1 steps, delay 10 steps, check yes
Step PotEng KinEng TotEng Enthalpy Temp Volume Press
0   -362.87998    4.1492507   -358.73073   -355.80669          300    1793.2992    2612.4081
Averages over the last 31 of 61 rows, steps 30000 to 60000:
PotEng KinEng TotEng Enthalpy Temp Volume Press
-358.663 4.22996 -354.433 -347.311 305.835 1800.3 6346.28
Loop time of 18.4493 on 1 procs for 60000 steps with 108 atoms

unfix 1
undump 2

######################################
# SIMULATION DONE
print "All done"
All done
